LTspice 24.0.12 for Windows
Circuit: * C:\Users\jinshui\Documents\git_repos\hardware_neuron_models\ltspice_models\Draft1.asc
Start Time: Tue Sep 24 21:31:46 2024
solver = Normal
Maximum thread count: 16
tnom = 27
temp = 27
method = modified trap
Direct Newton iteration for .op point succeeded.
Total elapsed time: 0.037 seconds.

