LTspice 24.0.12 for Windows
Circuit: * C:\Users\jinshui\Documents\git_repos\hardware_neuron_models\ltspice_models\fhn_model.asc
Start Time: Tue Sep 24 12:18:36 2024
Warning: Multiple definitions of model "2scr375p" Type: BJT
Warning: Multiple definitions of model "bc857b" Type: BJT
Warning: Multiple definitions of model "bc847c" Type: BJT
Warning: Multiple definitions of model "bc847b" Type: BJT
solver = Normal
Maximum thread count: 16
tnom = 27
temp = 27
method = modified trap
Direct Newton iteration for .op point succeeded.
Total elapsed time: 4.521 seconds.

